446308
  -OEChem-03212408183D

 61 61  0     0  0  0  0  0  0999 V2000
   -1.2561   -2.3586   -0.7550 O   0  0  0  0  0  0  0  0  0  0  0  0
   -3.4536   -1.6269    0.8201 O   0  0  0  0  0  0  0  0  0  0  0  0
   -4.6398    0.8108    0.2011 O   0  0  0  0  0  0  0  0  0  0  0  0
   -2.9617    2.7466   -0.9235 O   0  0  0  0  0  0  0  0  0  0  0  0
    3.9935   -0.1585   -0.6593 C   0  0  0  0  0  0  0  0  0  0  0  0
    3.4973    1.6459    1.3552 C   0  0  0  0  0  0  0  0  0  0  0  0
    4.0392    1.2982   -0.0706 C   0  0  0  0  0  0  0  0  0  0  0  0
    2.5713   -0.7539   -0.6853 C   0  0  0  0  0  0  0  0  0  0  0  0
    4.4597   -0.0620   -2.1412 C   0  0  0  0  0  0  0  0  0  0  0  0
    5.0321   -1.0579    0.0436 C   0  0  0  0  0  0  0  0  0  0  0  0
    3.6266    3.1795    1.5297 C   0  0  0  0  0  0  0  0  0  0  0  0
    4.3483    0.9999    2.4659 C   0  0  0  0  0  0  0  0  0  0  0  0
    2.0246    1.2763    1.5694 C   0  0  0  0  0  0  0  0  0  0  0  0
    2.3074   -1.9570   -0.0304 C   0  0  0  0  0  0  0  0  0  0  0  0
    1.5489   -0.0902   -1.3635 C   0  0  0  0  0  0  0  0  0  0  0  0
    1.0212   -2.4962   -0.0537 C   0  0  0  0  0  0  0  0  0  0  0  0
    0.2627   -0.6294   -1.3867 C   0  0  0  0  0  0  0  0  0  0  0  0
   -0.0011   -1.8324   -0.7318 C   0  0  0  0  0  0  0  0  0  0  0  0
   -1.6535   -3.1398    0.3708 C   0  0  0  0  0  0  0  0  0  0  0  0
   -3.1498   -2.9940    0.5708 C   0  0  0  0  0  0  0  0  0  0  0  0
   -4.8471   -1.4308    1.0159 C   0  0  0  0  0  0  0  0  0  0  0  0
   -5.1052    0.0365    1.2998 C   0  0  0  0  0  0  0  0  0  0  0  0
   -4.8768    2.1969    0.4036 C   0  0  0  0  0  0  0  0  0  0  0  0
   -4.3611    2.9675   -0.7963 C   0  0  0  0  0  0  0  0  0  0  0  0
   -2.4269    3.4297   -2.0486 C   0  0  0  0  0  0  0  0  0  0  0  0
    3.5008    1.9522   -0.7726 H   0  0  0  0  0  0  0  0  0  0  0  0
    5.0832    1.6423   -0.1228 H   0  0  0  0  0  0  0  0  0  0  0  0
    5.4964    0.2906   -2.2027 H   0  0  0  0  0  0  0  0  0  0  0  0
    3.8532    0.6346   -2.7305 H   0  0  0  0  0  0  0  0  0  0  0  0
    4.4131   -1.0387   -2.6384 H   0  0  0  0  0  0  0  0  0  0  0  0
    6.0175   -0.5770    0.0606 H   0  0  0  0  0  0  0  0  0  0  0  0
    4.7737   -1.2968    1.0757 H   0  0  0  0  0  0  0  0  0  0  0  0
    5.1564   -2.0121   -0.4840 H   0  0  0  0  0  0  0  0  0  0  0  0
    3.0287    3.7132    0.7820 H   0  0  0  0  0  0  0  0  0  0  0  0
    4.6677    3.5041    1.4202 H   0  0  0  0  0  0  0  0  0  0  0  0
    3.2814    3.5026    2.5186 H   0  0  0  0  0  0  0  0  0  0  0  0
    4.1176   -0.0609    2.5889 H   0  0  0  0  0  0  0  0  0  0  0  0
    5.4195    1.1069    2.2649 H   0  0  0  0  0  0  0  0  0  0  0  0
    4.1478    1.4681    3.4372 H   0  0  0  0  0  0  0  0  0  0  0  0
    1.8716    0.2002    1.6635 H   0  0  0  0  0  0  0  0  0  0  0  0
    1.6541    1.7091    2.5075 H   0  0  0  0  0  0  0  0  0  0  0  0
    1.3898    1.6733    0.7716 H   0  0  0  0  0  0  0  0  0  0  0  0
    3.0656   -2.5182    0.5038 H   0  0  0  0  0  0  0  0  0  0  0  0
    1.7237    0.8510   -1.8760 H   0  0  0  0  0  0  0  0  0  0  0  0
    0.8644   -3.4490    0.4434 H   0  0  0  0  0  0  0  0  0  0  0  0
   -0.5306   -0.1065   -1.9140 H   0  0  0  0  0  0  0  0  0  0  0  0
   -1.1654   -2.7886    1.2892 H   0  0  0  0  0  0  0  0  0  0  0  0
   -1.3988   -4.1898    0.1909 H   0  0  0  0  0  0  0  0  0  0  0  0
   -3.4754   -3.6095    1.4167 H   0  0  0  0  0  0  0  0  0  0  0  0
   -3.6767   -3.3145   -0.3354 H   0  0  0  0  0  0  0  0  0  0  0  0
   -5.3775   -1.7289    0.1041 H   0  0  0  0  0  0  0  0  0  0  0  0
   -5.1986   -2.0402    1.8557 H   0  0  0  0  0  0  0  0  0  0  0  0
   -4.5600    0.3397    2.2012 H   0  0  0  0  0  0  0  0  0  0  0  0
   -6.1773    0.2042    1.4503 H   0  0  0  0  0  0  0  0  0  0  0  0
   -4.3461    2.5201    1.3067 H   0  0  0  0  0  0  0  0  0  0  0  0
   -5.9500    2.3778    0.5288 H   0  0  0  0  0  0  0  0  0  0  0  0
   -4.5579    4.0374   -0.6667 H   0  0  0  0  0  0  0  0  0  0  0  0
   -4.8604    2.6135   -1.7058 H   0  0  0  0  0  0  0  0  0  0  0  0
   -1.3535    3.2271   -2.0954 H   0  0  0  0  0  0  0  0  0  0  0  0
   -2.5746    4.5093   -1.9482 H   0  0  0  0  0  0  0  0  0  0  0  0
   -2.8900    3.0695   -2.9724 H   0  0  0  0  0  0  0  0  0  0  0  0
  1 18  1  0  0  0  0
  1 19  1  0  0  0  0
  2 20  1  0  0  0  0
  2 21  1  0  0  0  0
  3 22  1  0  0  0  0
  3 23  1  0  0  0  0
  4 24  1  0  0  0  0
  4 25  1  0  0  0  0
  5  7  1  0  0  0  0
  5  8  1  0  0  0  0
  5  9  1  0  0  0  0
  5 10  1  0  0  0  0
  6  7  1  0  0  0  0
  6 11  1  0  0  0  0
  6 12  1  0  0  0  0
  6 13  1  0  0  0  0
  7 26  1  0  0  0  0
  7 27  1  0  0  0  0
  8 14  2  0  0  0  0
  8 15  1  0  0  0  0
  9 28  1  0  0  0  0
  9 29  1  0  0  0  0
  9 30  1  0  0  0  0
 10 31  1  0  0  0  0
 10 32  1  0  0  0  0
 10 33  1  0  0  0  0
 11 34  1  0  0  0  0
 11 35  1  0  0  0  0
 11 36  1  0  0  0  0
 12 37  1  0  0  0  0
 12 38  1  0  0  0  0
 12 39  1  0  0  0  0
 13 40  1  0  0  0  0
 13 41  1  0  0  0  0
 13 42  1  0  0  0  0
 14 16  1  0  0  0  0
 14 43  1  0  0  0  0
 15 17  2  0  0  0  0
 15 44  1  0  0  0  0
 16 18  2  0  0  0  0
 16 45  1  0  0  0  0
 17 18  1  0  0  0  0
 17 46  1  0  0  0  0
 19 20  1  0  0  0  0
 19 47  1  0  0  0  0
 19 48  1  0  0  0  0
 20 49  1  0  0  0  0
 20 50  1  0  0  0  0
 21 22  1  0  0  0  0
 21 51  1  0  0  0  0
 21 52  1  0  0  0  0
 22 53  1  0  0  0  0
 22 54  1  0  0  0  0
 23 24  1  0  0  0  0
 23 55  1  0  0  0  0
 23 56  1  0  0  0  0
 24 57  1  0  0  0  0
 24 58  1  0  0  0  0
 25 59  1  0  0  0  0
 25 60  1  0  0  0  0
 25 61  1  0  0  0  0
M  END
> <PUBCHEM_COMPOUND_CID>
446308

> <PUBCHEM_CONFORMER_RMSD>
1

> <PUBCHEM_CONFORMER_DIVERSEORDER>
1
54
13
10
49
34
12
55
35
46
17
36
44
30
59
40
38
57
18
9
14
47
19
23
41
21
2
52
31
58
50
53
29
3
51
27
7
33
32
8
25
56
28
11
22
20
48
42
45
4
39
15
43
26
16
37
5
60
24
6

> <PUBCHEM_MMFF94_PARTIAL_CHARGES>
22
1 -0.36
14 -0.15
15 -0.15
16 -0.15
17 -0.15
18 0.08
19 0.28
2 -0.56
20 0.28
21 0.28
22 0.28
23 0.28
24 0.28
25 0.28
3 -0.56
4 -0.56
43 0.15
44 0.15
45 0.15
46 0.15
5 0.14
8 -0.14

> <PUBCHEM_EFFECTIVE_ROTOR_COUNT>
13

> <PUBCHEM_PHARMACOPHORE_FEATURES>
7
1 1 acceptor
1 2 acceptor
1 3 acceptor
1 4 acceptor
3 5 9 10 hydrophobe
4 6 11 12 13 hydrophobe
6 8 14 15 16 17 18 rings

> <PUBCHEM_HEAVY_ATOM_COUNT>
25

> <PUBCHEM_ATOM_DEF_STEREO_COUNT>
0

> <PUBCHEM_ATOM_UDEF_STEREO_COUNT>
0

> <PUBCHEM_BOND_DEF_STEREO_COUNT>
0

> <PUBCHEM_BOND_UDEF_STEREO_COUNT>
0

> <PUBCHEM_ISOTOPIC_ATOM_COUNT>
0

> <PUBCHEM_COMPONENT_COUNT>
1

> <PUBCHEM_CACTVS_TAUTO_COUNT>
1

> <PUBCHEM_CONFORMER_ID>
0006CF6400000001

> <PUBCHEM_MMFF94_ENERGY>
88.745

> <PUBCHEM_FEATURE_SELFOVERLAP>
35.534

> <PUBCHEM_SHAPE_FINGERPRINT>
10256941 240 17461694244097178701
11089746 13 18201720677925345742
11135609 149 16484182197355673038
11595378 159 17530961384717735673
12596602 18 16226344706244230081
13402501 40 18342179960237785937
13561361 72 18336262426890067697
14223995 32 18267579104956702536
14347329 18 18262534636029145444
15629462 23 17198566753504500350
16067690 210 17823131401237041433
17868525 174 18343584015238434426
21033648 29 18412261727126684153
21315764 268 18343023332536920483
21475661 188 18202003286904791338
3052486 1 18186801400326250940
3117164 225 18189883249952062242
4742675 86 18265874978487993757
5047190 48 17691965281560283840
508706 21 18411414042606329729
552612 73 18340490079849478908
574716 61 14907890617974313297
653340 110 18407759227454001045
9777508 108 18336259068230403973

> <PUBCHEM_SHAPE_MULTIPOLES>
491.01
12.46
4.4
1.95
7.37
1.26
-0.06
5.38
-3.19
4.33
0.24
-1.48
1.27
3.65

> <PUBCHEM_SHAPE_SELFOVERLAP>
967.09

> <PUBCHEM_SHAPE_VOLUME>
295.6

> <PUBCHEM_COORDINATE_TYPE>
2
5
10

$$$$
