46186304
  -OEChem-03212408173D

 32 32  0     0  0  0  0  0  0999 V2000
    3.4696   -0.8106   -1.0079 O   0  0  0  0  0  0  0  0  0  0  0  0
   -1.2659   -0.0397   -0.2559 C   0  0  0  0  0  0  0  0  0  0  0  0
    1.6781    0.2172    0.2375 C   0  0  0  0  0  0  0  0  0  0  0  0
   -0.4766   -1.1543    0.4407 C   0  0  0  0  0  0  0  0  0  0  0  0
   -0.6175    1.3277   -0.0113 C   0  0  0  0  0  0  0  0  0  0  0  0
    0.9957   -1.1473    0.0297 C   0  0  0  0  0  0  0  0  0  0  0  0
    0.8546    1.3380   -0.4230 C   0  0  0  0  0  0  0  0  0  0  0  0
   -2.7209   -0.0375    0.2099 C   0  0  0  0  0  0  0  0  0  0  0  0
    1.9195    0.5021    1.7260 C   0  0  0  0  0  0  0  0  0  0  0  0
    3.0339    0.1744   -0.4210 C   0  0  0  0  0  0  0  0  0  0  0  0
   -3.5167    1.0404   -0.5224 C   0  0  0  0  0  0  0  0  0  0  0  0
   -3.3539   -1.4104   -0.0023 C   0  0  0  0  0  0  0  0  0  0  0  0
   -1.2389   -0.2363   -1.3374 H   0  0  0  0  0  0  0  0  0  0  0  0
   -0.5599   -1.0579    1.5299 H   0  0  0  0  0  0  0  0  0  0  0  0
   -0.8722   -2.1410    0.1779 H   0  0  0  0  0  0  0  0  0  0  0  0
   -1.1163    2.1092   -0.5940 H   0  0  0  0  0  0  0  0  0  0  0  0
   -0.7105    1.6108    1.0440 H   0  0  0  0  0  0  0  0  0  0  0  0
    1.0463   -1.4349   -1.0299 H   0  0  0  0  0  0  0  0  0  0  0  0
    1.5281   -1.9320    0.5829 H   0  0  0  0  0  0  0  0  0  0  0  0
    0.9125    1.2383   -1.5159 H   0  0  0  0  0  0  0  0  0  0  0  0
    1.2892    2.3189   -0.1903 H   0  0  0  0  0  0  0  0  0  0  0  0
   -2.7677    0.1864    1.2839 H   0  0  0  0  0  0  0  0  0  0  0  0
    0.9875    0.5419    2.2976 H   0  0  0  0  0  0  0  0  0  0  0  0
    2.4349    1.4594    1.8673 H   0  0  0  0  0  0  0  0  0  0  0  0
    2.5523   -0.2716    2.1768 H   0  0  0  0  0  0  0  0  0  0  0  0
    3.6362    1.0976   -0.3536 H   0  0  0  0  0  0  0  0  0  0  0  0
   -4.5864    0.9457   -0.3036 H   0  0  0  0  0  0  0  0  0  0  0  0
   -3.2289    2.0478   -0.2076 H   0  0  0  0  0  0  0  0  0  0  0  0
   -3.3937    0.9648   -1.6082 H   0  0  0  0  0  0  0  0  0  0  0  0
   -2.9610   -2.1557    0.6958 H   0  0  0  0  0  0  0  0  0  0  0  0
   -4.4347   -1.3681    0.1750 H   0  0  0  0  0  0  0  0  0  0  0  0
   -3.2017   -1.7718   -1.0251 H   0  0  0  0  0  0  0  0  0  0  0  0
  1 10  2  0  0  0  0
  2  4  1  0  0  0  0
  2  5  1  0  0  0  0
  2  8  1  0  0  0  0
  2 13  1  0  0  0  0
  3  6  1  0  0  0  0
  3  7  1  0  0  0  0
  3  9  1  0  0  0  0
  3 10  1  0  0  0  0
  4  6  1  0  0  0  0
  4 14  1  0  0  0  0
  4 15  1  0  0  0  0
  5  7  1  0  0  0  0
  5 16  1  0  0  0  0
  5 17  1  0  0  0  0
  6 18  1  0  0  0  0
  6 19  1  0  0  0  0
  7 20  1  0  0  0  0
  7 21  1  0  0  0  0
  8 11  1  0  0  0  0
  8 12  1  0  0  0  0
  8 22  1  0  0  0  0
  9 23  1  0  0  0  0
  9 24  1  0  0  0  0
  9 25  1  0  0  0  0
 10 26  1  0  0  0  0
 11 27  1  0  0  0  0
 11 28  1  0  0  0  0
 11 29  1  0  0  0  0
 12 30  1  0  0  0  0
 12 31  1  0  0  0  0
 12 32  1  0  0  0  0
M  END
> <PUBCHEM_COMPOUND_CID>
46186304

> <PUBCHEM_CONFORMER_RMSD>
0.6

> <PUBCHEM_CONFORMER_DIVERSEORDER>
1
3
5
4
2

> <PUBCHEM_MMFF94_PARTIAL_CHARGES>
4
1 -0.57
10 0.45
26 0.06
3 0.06

> <PUBCHEM_EFFECTIVE_ROTOR_COUNT>
3.2

> <PUBCHEM_PHARMACOPHORE_FEATURES>
3
1 1 acceptor
3 8 11 12 hydrophobe
6 2 3 4 5 6 7 rings

> <PUBCHEM_HEAVY_ATOM_COUNT>
12

> <PUBCHEM_ATOM_DEF_STEREO_COUNT>
0

> <PUBCHEM_ATOM_UDEF_STEREO_COUNT>
0

> <PUBCHEM_BOND_DEF_STEREO_COUNT>
0

> <PUBCHEM_BOND_UDEF_STEREO_COUNT>
0

> <PUBCHEM_ISOTOPIC_ATOM_COUNT>
0

> <PUBCHEM_COMPONENT_COUNT>
1

> <PUBCHEM_CACTVS_TAUTO_COUNT>
1

> <PUBCHEM_CONFORMER_ID>
02C0BF4000000001

> <PUBCHEM_MMFF94_ENERGY>
26.3005

> <PUBCHEM_FEATURE_SELFOVERLAP>
15.223

> <PUBCHEM_SHAPE_FINGERPRINT>
10219947 1 15410896245294599396
10857977 72 18337380634631256881
11031198 65 14562817642402804094
11132069 177 18408879637849268305
12032990 46 18411708707058536199
12897270 3 18410012109013713445
12932764 1 17203608241592442901
13296908 3 18201716284273301037
13571099 22 18201718448910574437
14144814 61 18040991860721348929
14325111 11 18408604790070346957
14993402 34 17894352202179448879
15219456 202 18060131085396005504
15775835 57 17312821559069094377
16945 1 18334284358210792281
18175812 5 18131628993502572325
18186145 218 18343018887208728817
19026448 5 15936404533434119585
20201158 50 18412547582859221359
20645476 183 17313114076444055714
20645477 70 17346313769624637837
20711983 171 16371274546415629047
20715346 28 18201992278829563537
21293036 1 18187933905966342516
23235685 24 18334010583904689084
23402539 116 18334571339725888894
23402655 69 18264753386829384053
23559900 14 18412547596693494214
2748010 2 18192430985701573129
5084963 1 18343589567897431171
528886 8 18335421248706739401
57812782 119 17632855326049427857
7364860 26 18124881419355377316

> <PUBCHEM_SHAPE_MULTIPOLES>
241.09
5.66
1.47
1.01
1.66
0.01
0.32
0.54
-1
0.58
-0.09
-0.75
-0.05
0.41

> <PUBCHEM_SHAPE_SELFOVERLAP>
473.932

> <PUBCHEM_SHAPE_VOLUME>
143.9

> <PUBCHEM_COORDINATE_TYPE>
2
5
10

$$$$
