54710606
  -OEChem-03062410533D

 39 41  0     1  0  0  0  0  0999 V2000
    1.4143   -1.6617    0.2463 S   0  0  0  0  0  0  0  0  0  0  0  0
   -4.4802   -1.3705    0.3185 S   0  0  0  0  0  0  0  0  0  0  0  0
    1.0008   -1.7070    1.6358 O   0  0  0  0  0  0  0  0  0  0  0  0
    1.7728   -2.8710   -0.4691 O   0  0  0  0  0  0  0  0  0  0  0  0
    1.0150    2.6125    0.6492 O   0  0  0  0  0  0  0  0  0  0  0  0
   -1.5655    2.2300   -0.4446 O   0  0  0  0  0  0  0  0  0  0  0  0
    0.2628   -0.7685   -0.6806 N   0  0  1  0  0  0  0  0  0  0  0  0
   -2.2349    0.0134   -0.0147 N   0  0  0  0  0  0  0  0  0  0  0  0
   -4.3926    1.1698   -0.1520 N   0  0  0  0  0  0  0  0  0  0  0  0
    2.7839   -0.5631    0.1785 C   0  0  0  0  0  0  0  0  0  0  0  0
    2.5102    0.8096    0.1499 C   0  0  0  0  0  0  0  0  0  0  0  0
    0.0560    0.5738   -0.1967 C   0  0  0  0  0  0  0  0  0  0  0  0
    1.1156    1.3120    0.1916 C   0  0  0  0  0  0  0  0  0  0  0  0
    4.0802   -1.0736    0.1353 C   0  0  0  0  0  0  0  0  0  0  0  0
    3.6064    1.6820    0.0923 C   0  0  0  0  0  0  0  0  0  0  0  0
    5.1501   -0.1866    0.0741 C   0  0  0  0  0  0  0  0  0  0  0  0
    0.3592   -0.8888   -2.1646 C   0  0  0  0  0  0  0  0  0  0  0  0
    4.9149    1.1875    0.0536 C   0  0  0  0  0  0  0  0  0  0  0  0
   -1.3322    1.0428   -0.2349 C   0  0  0  0  0  0  0  0  0  0  0  0
    6.5490   -0.7036    0.0398 C   0  0  0  0  0  0  0  0  0  0  0  0
   -3.6481    0.1000    0.0184 C   0  0  0  0  0  0  0  0  0  0  0  0
   -5.9669   -0.5215    0.2166 C   0  0  0  0  0  0  0  0  0  0  0  0
   -5.7217    0.8115   -0.0384 C   0  0  0  0  0  0  0  0  0  0  0  0
   -7.2495   -1.2289    0.3954 C   0  0  0  0  0  0  0  0  0  0  0  0
    4.2588   -2.1446    0.1605 H   0  0  0  0  0  0  0  0  0  0  0  0
    3.4652    2.7601    0.0665 H   0  0  0  0  0  0  0  0  0  0  0  0
    0.2736   -1.9390   -2.4584 H   0  0  0  0  0  0  0  0  0  0  0  0
    1.3056   -0.4807   -2.5311 H   0  0  0  0  0  0  0  0  0  0  0  0
   -0.4648   -0.3510   -2.6448 H   0  0  0  0  0  0  0  0  0  0  0  0
    5.7438    1.8896    0.0086 H   0  0  0  0  0  0  0  0  0  0  0  0
    6.9343   -0.8127    1.0584 H   0  0  0  0  0  0  0  0  0  0  0  0
    6.5980   -1.6769   -0.4604 H   0  0  0  0  0  0  0  0  0  0  0  0
    7.2074   -0.0257   -0.5140 H   0  0  0  0  0  0  0  0  0  0  0  0
   -1.8780   -0.9257    0.1464 H   0  0  0  0  0  0  0  0  0  0  0  0
    0.0779    2.8688    0.6586 H   0  0  0  0  0  0  0  0  0  0  0  0
   -6.4812    1.5737   -0.1512 H   0  0  0  0  0  0  0  0  0  0  0  0
   -8.0952   -0.5399    0.2984 H   0  0  0  0  0  0  0  0  0  0  0  0
   -7.3086   -1.6888    1.3875 H   0  0  0  0  0  0  0  0  0  0  0  0
   -7.3730   -2.0136   -0.3583 H   0  0  0  0  0  0  0  0  0  0  0  0
  1  3  2  0  0  0  0
  1  4  2  0  0  0  0
  1  7  1  0  0  0  0
  1 10  1  0  0  0  0
  2 21  1  0  0  0  0
  2 22  1  0  0  0  0
  5 13  1  0  0  0  0
  5 35  1  0  0  0  0
  6 19  2  0  0  0  0
  7 12  1  0  0  0  0
  7 17  1  0  0  0  0
  8 19  1  0  0  0  0
  8 21  1  0  0  0  0
  8 34  1  0  0  0  0
  9 21  2  0  0  0  0
  9 23  1  0  0  0  0
 10 11  2  0  0  0  0
 10 14  1  0  0  0  0
 11 13  1  0  0  0  0
 11 15  1  0  0  0  0
 12 13  2  0  0  0  0
 12 19  1  0  0  0  0
 14 16  2  0  0  0  0
 14 25  1  0  0  0  0
 15 18  2  0  0  0  0
 15 26  1  0  0  0  0
 16 18  1  0  0  0  0
 16 20  1  0  0  0  0
 17 27  1  0  0  0  0
 17 28  1  0  0  0  0
 17 29  1  0  0  0  0
 18 30  1  0  0  0  0
 20 31  1  0  0  0  0
 20 32  1  0  0  0  0
 20 33  1  0  0  0  0
 22 23  2  0  0  0  0
 22 24  1  0  0  0  0
 23 36  1  0  0  0  0
 24 37  1  0  0  0  0
 24 38  1  0  0  0  0
 24 39  1  0  0  0  0
M  END
> <PUBCHEM_COMPOUND_CID>
54710606

> <PUBCHEM_CONFORMER_RMSD>
0.6

> <PUBCHEM_CONFORMER_DIVERSEORDER>
2
14
12
28
8
3
17
24
26
5
10
1
16
23
20
9
6
7
21
13
4
25
19
22
11
27
15
18

> <PUBCHEM_MMFF94_PARTIAL_CHARGES>
30
1 1.45
10 -0.01
11 0.03
12 0.21
13 0.05
14 -0.15
15 -0.15
16 -0.14
17 0.36
18 -0.15
19 0.62
2 -0.08
20 0.14
21 0.44
22 -0.14
23 0.08
24 0.18
25 0.15
26 0.15
3 -0.65
30 0.15
34 0.37
35 0.45
36 0.15
4 -0.65
5 -0.53
6 -0.57
7 -0.68
8 -0.49
9 -0.57

> <PUBCHEM_EFFECTIVE_ROTOR_COUNT>
3.2

> <PUBCHEM_PHARMACOPHORE_FEATURES>
8
1 3 acceptor
1 4 acceptor
1 5 donor
1 6 acceptor
1 8 donor
5 2 9 21 22 23 rings
6 1 7 10 11 12 13 rings
6 10 11 14 15 16 18 rings

> <PUBCHEM_HEAVY_ATOM_COUNT>
24

> <PUBCHEM_ATOM_DEF_STEREO_COUNT>
0

> <PUBCHEM_ATOM_UDEF_STEREO_COUNT>
0

> <PUBCHEM_BOND_DEF_STEREO_COUNT>
0

> <PUBCHEM_BOND_UDEF_STEREO_COUNT>
0

> <PUBCHEM_ISOTOPIC_ATOM_COUNT>
0

> <PUBCHEM_COMPONENT_COUNT>
1

> <PUBCHEM_CACTVS_TAUTO_COUNT>
37

> <PUBCHEM_CONFORMER_ID>
0342D14E00000002

> <PUBCHEM_MMFF94_ENERGY>
61.0874

> <PUBCHEM_FEATURE_SELFOVERLAP>
40.632

> <PUBCHEM_SHAPE_FINGERPRINT>
10 15 18337100268357904960
11045977 3 18261677063998418187
11421498 54 16916796136519476699
11488393 25 17773331036460204726
11578080 2 12469793977821200758
11963148 33 18335976532334701811
12011746 2 18334014994915307866
12236239 1 17917992784529594241
12516196 113 18413669123769988441
12592029 89 18272934891137079214
12596602 18 16988560260269565219
13402501 40 18261394477089511971
13464513 79 18411698798452686512
13685833 64 18333735745475279843
13862211 1 18411134748971793546
14341114 176 18411422834430901425
14787075 74 18334295379191799978
14790565 3 18340490057699382844
14849402 71 18129382768467741552
14955137 171 18060139847161054588
15196674 1 18410011065273363465
15927050 60 17694500755727129092
17492 89 18121777227837655242
17980427 23 13768211528201842934
1813 80 17022904540971022389
20028762 73 18201717388033229358
20261772 1 18059569213136419270
21197605 99 18267589189935753499
21267235 1 18341335518248831044
21521721 280 18130508638641355704
21623969 137 18411423920883638371
21709351 56 18259978293117245573
22224240 67 17418370311839059855
23402539 116 18186517709278115413
23522609 53 18192181276246026933
23557571 272 17313100800647240925
23559900 14 18337385063249506489
239999 70 18341618105142277030
2871803 45 18260264127121666896
3004659 81 18113616793926973896
3178227 256 18343307001935912496
335352 9 18410576206562296494
350125 39 18410292519413950396
3545911 37 18410575098244280651
4073 2 17968101975067848067
4325135 7 18186239532641161295
4340502 62 18113334232565864250
465052 167 18341617039731762237
5104073 3 18340762633313745081
5486654 2 18334300889418757766
59755656 215 18410015399381084286
9999458 23 18114461257796557268

> <PUBCHEM_SHAPE_MULTIPOLES>
463.19
15.03
2.22
0.96
14.78
0.05
0.31
-2.64
-1.95
-0.71
-0.12
-0.11
-0.33
0.41

> <PUBCHEM_SHAPE_SELFOVERLAP>
975.768

> <PUBCHEM_SHAPE_VOLUME>
262.6

> <PUBCHEM_COORDINATE_TYPE>
2
5
10

$$$$
